
Note: No compatibility mode selected!


Circuit: * state-variable filter (gm-c svf) testbench

=== SVF DC Operating Point ===
Doing analysis at TEMP = 27.000000 and TNOM = 27.000000

Using SPARSE 1.3 as Direct Linear Solver

No. of Data Rows : 1
  HP: 0.6
  BP: 0.6
  LP: 0.6
  svf_out: 0.59994
=== BP AC Response ===
Doing analysis at TEMP = 27.000000 and TNOM = 27.000000

Using SPARSE 1.3 as Direct Linear Solver

No. of Data Rows : 401
bp_peak             =  -2.177529e+01 at=  1.513561e+07
  BP peak gain: -21.7753 dB
=== LP AC Response ===
Doing analysis at TEMP = 27.000000 and TNOM = 27.000000

Using SPARSE 1.3 as Direct Linear Solver

No. of Data Rows : 401
  LP DC gain: -26.1679 dB
=== HP AC Response ===
Doing analysis at TEMP = 27.000000 and TNOM = 27.000000

Using SPARSE 1.3 as Direct Linear Solver

No. of Data Rows : 401
  HP high-freq gain: -12.0636 dB
=== Transient Test (BP, 10MHz) ===
Doing analysis at TEMP = 27.000000 and TNOM = 27.000000

Using SPARSE 1.3 as Direct Linear Solver

Initial Transient Solution
--------------------------

Node                                   Voltage
----                                   -------
vdd                                        1.2
vcm_node                                   0.6
vin                                        0.6
sel1                                         0
sel0                                         0
xsvf.hp                                    0.6
xsvf.lp                                    0.6
xsvf.bp                                    0.6
xsvf.xc1.1                                 0.6
xsvf.xc2.1                                 0.6
xsvf.notch                                 0.6
xsvf.sel_hp                                  1
xsvf.sel_bp                                  0
xsvf.sel_lp                                  0
xsvf.sel_not                                 0
xsvf.vmux                                  0.6
svf_out                                0.59994
b.xsvf.bmux#branch                 -5.9994e-07
b.xsvf.bsel_not#branch                       0
b.xsvf.bsel_lp#branch                        0
b.xsvf.bsel_bp#branch                        0
b.xsvf.bsel_hp#branch                        0
vsel0#branch                                 0
vsel1#branch                                 0
vin#branch                                   0
vcm#branch                         1.09176e-15
vdd#branch                                   0


No. of Data Rows : 1008
=== SVF Simulation Complete ===
Note: Simulation executed from .control section 
